<?xml version="1.0" encoding="UTF-8"?>

<!-- generated on 12/23/20 22:56:32 by Eclipse SUMO netedit Version 1.6.0
<configuration xmlns:xsi="http://www.w3.org/2001/XMLSchema-instance" xsi:noNamespaceSchemaLocation="http://sumo.dlr.de/xsd/netconvertConfiguration.xsd">

    <input>
        <sumo-net-file value="network0.xml"/>
    </input>

    <output>
        <output-file value="network0.xml"/>
        <output.street-names value="true"/>
    </output>

    <processing>
        <geometry.min-radius.fix.railways value="false"/>
        <geometry.max-grade.fix value="false"/>
        <offset.disable-normalization value="true"/>
        <lefthand value="true"/>
    </processing>

    <junctions>
        <no-turnarounds value="true"/>
        <junctions.corner-detail value="5"/>
        <junctions.limit-turn-speed value="5.5"/>
        <rectangular-lane-cut value="false"/>
    </junctions>

    <pedestrian>
        <walkingareas value="false"/>
    </pedestrian>

    <netedit>
        <additional-files value="C:\Users\deepi\Desktop\sumo-challenge\vtype.add.xml"/>
        <route-files value="C:\Users\deepi\Desktop\sumo-challenge\demand.rou.xml"/>
        <data-files value="C:\Users\deepi\Desktop\sumo-challenge\vtype.xml"/>
    </netedit>

    <report>
        <aggregate-warnings value="5"/>
    </report>

</configuration>
-->

<routes xmlns:xsi="http://www.w3.org/2001/XMLSchema-instance" xsi:noNamespaceSchemaLocation="http://sumo.dlr.de/xsd/routes_file.xsd">
    <vType id="car" maxSpeed="46.80" vClass="passenger" guiShape="passenger/sedan" color="240,248,255" laneChangeModel="SL2015"/>
    <route edges="300113820#2 300113820#4 300113820#6 300113820#7 300113820#10 141875290#0 141875290#1 141875290#2 141875290#4 141875290#5 141875290#6 141875290#7 141875290#9 141875290#10 141875290#12 -625804362#5 -625804362#4 -625804362#3 -625804362#1 -625804362#0 -625804363 -8690226#8 -8690226#7 -8690226#6 -8690226#0 -300113820#3" id="route_0"/>

	<vehicle id="car" type="car" route="route_0" depart="0" color="240,248,255" />
	
</routes>
