<?xml version="1.0" encoding="UTF-8"?>

<!-- generated on 12/23/20 23:16:53 by Eclipse SUMO netedit Version 1.6.0
<configuration xmlns:xsi="http://www.w3.org/2001/XMLSchema-instance" xsi:noNamespaceSchemaLocation="http://sumo.dlr.de/xsd/netconvertConfiguration.xsd">

    <input>
        <sumo-net-file value="C:\Users\deepi\Desktop\sumo-challenge\network.xml"/>
    </input>

    <output>
        <output-file value="C:\Users\deepi\Desktop\sumo-challenge\network.xml"/>
        <output.street-names value="true"/>
    </output>

    <processing>
        <geometry.min-radius.fix.railways value="false"/>
        <geometry.max-grade.fix value="false"/>
        <offset.disable-normalization value="true"/>
        <lefthand value="true"/>
    </processing>

    <junctions>
        <no-turnarounds value="true"/>
        <junctions.corner-detail value="5"/>
        <junctions.limit-turn-speed value="5.5"/>
        <rectangular-lane-cut value="false"/>
    </junctions>

    <pedestrian>
        <walkingareas value="false"/>
    </pedestrian>

    <report>
        <aggregate-warnings value="5"/>
    </report>

</configuration>
-->

<net version="1.6" junctionCornerDetail="5" lefthand="true" limitTurnSpeed="5.50" xmlns:xsi="http://www.w3.org/2001/XMLSchema-instance" xsi:noNamespaceSchemaLocation="http://sumo.dlr.de/xsd/net_file.xsd">

    <location netOffset="0.00,0.00" convBoundary="548679.05,5913646.71,549581.05,5915772.75" origBoundary="-2.275894,53.365159,-2.240099,53.388729" projParameter="+proj=utm +zone=30 +ellps=WGS84 +datum=WGS84 +units=m +no_defs"/>

    <type id="highway.living_street" priority="2" numLanes="1" speed="2.78" disallow="tram rail_urban rail rail_electric rail_fast ship" oneway="0"/>
    <type id="highway.motorway" priority="14" numLanes="2" speed="39.44" allow="private emergency authority army vip passenger hov taxi bus coach delivery truck trailer motorcycle evehicle custom1 custom2" oneway="1"/>
    <type id="highway.motorway_link" priority="9" numLanes="1" speed="22.22" allow="private emergency authority army vip passenger hov taxi bus coach delivery truck trailer motorcycle evehicle custom1 custom2" oneway="1"/>
    <type id="highway.primary" priority="12" numLanes="2" speed="27.78" disallow="tram rail_urban rail rail_electric rail_fast ship" oneway="0"/>
    <type id="highway.primary_link" priority="7" numLanes="1" speed="22.22" disallow="tram rail_urban rail rail_electric rail_fast ship" oneway="0"/>
    <type id="highway.residential" priority="3" numLanes="1" speed="13.89" disallow="tram rail_urban rail rail_electric rail_fast ship" oneway="0"/>
    <type id="highway.secondary" priority="11" numLanes="1" speed="27.78" disallow="tram rail_urban rail rail_electric rail_fast ship" oneway="0"/>
    <type id="highway.secondary_link" priority="6" numLanes="1" speed="22.22" disallow="tram rail_urban rail rail_electric rail_fast ship" oneway="0"/>
    <type id="highway.service" priority="1" numLanes="1" speed="5.56" allow="pedestrian delivery bicycle" oneway="0"/>
    <type id="highway.tertiary" priority="10" numLanes="1" speed="22.22" disallow="tram rail_urban rail rail_electric rail_fast ship" oneway="0"/>
    <type id="highway.tertiary_link" priority="5" numLanes="1" speed="22.22" disallow="tram rail_urban rail rail_electric rail_fast ship" oneway="0"/>
    <type id="highway.track" priority="1" numLanes="1" speed="5.56" disallow="tram rail_urban rail rail_electric rail_fast ship" oneway="0"/>
    <type id="highway.trunk" priority="13" numLanes="2" speed="27.78" disallow="pedestrian bicycle tram rail_urban rail rail_electric rail_fast ship" oneway="0"/>
    <type id="highway.trunk_link" priority="8" numLanes="1" speed="22.22" disallow="pedestrian bicycle tram rail_urban rail rail_electric rail_fast ship" oneway="0"/>
    <type id="highway.unclassified" priority="4" numLanes="1" speed="13.89" disallow="tram rail_urban rail rail_electric rail_fast ship" oneway="0"/>
    <type id="highway.unsurfaced" priority="1" numLanes="1" speed="8.33" disallow="tram rail_urban rail rail_electric rail_fast ship" oneway="0"/>

    <edge id=":1777276186_0" function="internal">
        <lane id=":1777276186_0_0" index="0" disallow="tram rail_urban rail rail_electric rail_fast ship" speed="13.89" length="14.32" shape="548892.89,5913944.22 548891.17,5913930.01"/>
    </edge>
    <edge id=":1777276186_1" function="internal">
        <lane id=":1777276186_1_0" index="0" disallow="tram rail_urban rail rail_electric rail_fast ship" speed="8.12" length="5.78" shape="548892.89,5913944.22 548891.86,5913940.53 548890.65,5913939.01"/>
    </edge>
    <edge id=":1777276186_6" function="internal">
        <lane id=":1777276186_6_0" index="0" disallow="tram rail_urban rail rail_electric rail_fast ship" speed="8.12" length="8.42" shape="548890.65,5913939.01 548889.86,5913938.01 548886.91,5913936.66 548883.01,5913936.48"/>
    </edge>
    <edge id=":1777276186_2" function="internal">
        <lane id=":1777276186_2_0" index="0" disallow="tram rail_urban rail rail_electric rail_fast ship" speed="6.64" length="9.18" shape="548883.30,5913939.67 548885.84,5913939.78 548887.76,5913940.65 548889.05,5913942.27 548889.72,5913944.64"/>
    </edge>
    <edge id=":1777276186_3" function="internal">
        <lane id=":1777276186_3_0" index="0" disallow="tram rail_urban rail rail_electric rail_fast ship" speed="7.97" length="14.27" shape="548883.30,5913939.67 548887.12,5913938.76 548889.70,5913936.85 548891.05,5913933.93 548891.17,5913930.01"/>
    </edge>
    <edge id=":1777276186_4" function="internal">
        <lane id=":1777276186_4_0" index="0" disallow="tram rail_urban rail rail_electric rail_fast ship" speed="6.46" length="9.03" shape="548887.99,5913930.37 548887.91,5913932.85 548887.06,5913934.70 548885.42,5913935.91 548883.01,5913936.48"/>
    </edge>
    <edge id=":1777276186_5" function="internal">
        <lane id=":1777276186_5_0" index="0" disallow="tram rail_urban rail rail_electric rail_fast ship" speed="13.89" length="14.37" shape="548887.99,5913930.37 548889.72,5913944.64"/>
    </edge>
    <edge id=":1777276188_0" function="internal">
        <lane id=":1777276188_0_0" index="0" disallow="tram rail_urban rail rail_electric rail_fast ship" speed="13.89" length="14.41" shape="549245.16,5913997.22 549242.11,5913999.25 549239.14,5914001.19 549236.12,5914003.05 549232.92,5914004.82"/>
    </edge>
    <edge id=":1777276188_1" function="internal">
        <lane id=":1777276188_1_0" index="0" disallow="tram rail_urban rail rail_electric rail_fast ship" speed="8.22" length="5.82" shape="549245.16,5913997.22 549242.34,5913999.76 549241.47,5914001.59"/>
    </edge>
    <edge id=":1777276188_6" function="internal">
        <lane id=":1777276188_6_0" index="0" disallow="tram rail_urban rail rail_electric rail_fast ship" speed="8.22" length="8.48" shape="549241.47,5914001.59 549240.95,5914002.68 549241.01,5914005.97 549242.51,5914009.65"/>
    </edge>
    <edge id=":1777276188_2" function="internal">
        <lane id=":1777276188_2_0" index="0" disallow="tram rail_urban rail rail_electric rail_fast ship" speed="6.77" length="9.38" shape="549245.29,5914008.06 549244.28,5914005.63 549244.22,5914003.45 549245.10,5914001.54 549246.93,5913999.89"/>
    </edge>
    <edge id=":1777276188_3" function="internal">
        <lane id=":1777276188_3_0" index="0" disallow="tram rail_urban rail rail_electric rail_fast ship" speed="8.19" length="14.44" shape="549245.29,5914008.06 549242.91,5914005.07 549240.06,5914003.53 549236.73,5914003.44 549232.92,5914004.82"/>
    </edge>
    <edge id=":1777276188_4" function="internal">
        <lane id=":1777276188_4_0" index="0" disallow="tram rail_urban rail rail_electric rail_fast ship" speed="6.64" length="9.15" shape="549234.70,5914007.50 549237.09,5914006.65 549239.19,5914006.72 549240.99,5914007.72 549242.51,5914009.65"/>
    </edge>
    <edge id=":1777276188_5" function="internal">
        <lane id=":1777276188_5_0" index="0" disallow="tram rail_urban rail rail_electric rail_fast ship" speed="13.89" length="14.41" shape="549234.70,5914007.50 549237.90,5914005.73 549240.92,5914003.86 549243.88,5914001.92 549246.93,5913999.89"/>
    </edge>
    <edge id=":1777276193_0" function="internal">
        <lane id=":1777276193_0_0" index="0" disallow="tram rail_urban rail rail_electric rail_fast ship" speed="6.28" length="9.04" shape="549288.19,5914071.42 549285.97,5914072.60 549283.97,5914072.73 549282.19,5914071.80 549280.64,5914069.82"/>
    </edge>
    <edge id=":1777276193_1" function="internal">
        <lane id=":1777276193_1_0" index="0" disallow="tram rail_urban rail rail_electric rail_fast ship" speed="22.22" length="14.42" shape="549288.19,5914071.42 549285.24,5914073.60 549282.36,5914075.67 549279.39,5914077.61 549276.20,5914079.39"/>
    </edge>
    <edge id=":1777276193_2" function="internal">
        <lane id=":1777276193_2_0" index="0" disallow="tram rail_urban rail rail_electric rail_fast ship" speed="22.22" length="14.42" shape="549278.11,5914082.01 549281.30,5914080.23 549284.26,5914078.27 549287.14,5914076.18 549290.08,5914074.00"/>
    </edge>
    <edge id=":1777276193_3" function="internal">
        <lane id=":1777276193_3_0" index="0" disallow="tram rail_urban rail rail_electric rail_fast ship" speed="7.89" length="6.00" shape="549278.11,5914082.01 549281.04,5914079.86 549282.12,5914077.74"/>
    </edge>
    <edge id=":1777276193_6" function="internal">
        <lane id=":1777276193_6_0" index="0" disallow="tram rail_urban rail rail_electric rail_fast ship" speed="7.89" length="8.34" shape="549282.12,5914077.74 549282.44,5914077.11 549282.31,5914073.76 549280.64,5914069.82"/>
    </edge>
    <edge id=":1777276193_4" function="internal">
        <lane id=":1777276193_4_0" index="0" disallow="tram rail_urban rail rail_electric rail_fast ship" speed="6.50" length="9.40" shape="549277.87,5914071.41 549278.95,5914073.99 549279.04,5914076.18 549278.12,5914077.98 549276.20,5914079.39"/>
    </edge>
    <edge id=":1777276193_5" function="internal">
        <lane id=":1777276193_5_0" index="0" disallow="tram rail_urban rail rail_electric rail_fast ship" speed="7.81" length="14.64" shape="549277.87,5914071.41 549280.37,5914074.62 549283.25,5914076.12 549286.48,5914075.92 549290.08,5914074.00"/>
    </edge>
    <edge id=":191007751_0" function="internal">
        <lane id=":191007751_0_0" index="0" disallow="tram rail_urban rail rail_electric rail_fast ship" speed="6.37" length="9.04" shape="548934.89,5914048.86 548932.40,5914048.98 548930.51,5914048.25 548929.24,5914046.68 548928.58,5914044.27"/>
    </edge>
    <edge id=":191007751_1" function="internal">
        <lane id=":191007751_1_0" index="0" disallow="tram rail_urban rail rail_electric rail_fast ship" speed="13.89" length="14.55" shape="548934.89,5914048.86 548920.56,5914051.38"/>
    </edge>
    <edge id=":191007751_2" function="internal">
        <lane id=":191007751_2_0" index="0" disallow="tram rail_urban rail rail_electric rail_fast ship" speed="8.13" length="5.92" shape="548934.89,5914048.86 548931.13,5914050.14 548929.66,5914051.41"/>
    </edge>
    <edge id=":191007751_12" function="internal">
        <lane id=":191007751_12_0" index="0" disallow="tram rail_urban rail rail_electric rail_fast ship" speed="8.13" length="8.48" shape="548929.66,5914051.41 548928.64,5914052.29 548927.43,5914055.30 548927.49,5914059.18"/>
    </edge>
    <edge id=":191007751_3" function="internal">
        <lane id=":191007751_3_0" index="0" disallow="tram rail_urban rail rail_electric rail_fast ship" speed="6.67" length="9.33" shape="548930.65,5914058.66 548930.61,5914056.16 548931.41,5914054.22 548933.03,5914052.84 548935.50,5914052.01"/>
    </edge>
    <edge id=":191007751_4" function="internal">
        <lane id=":191007751_4_0" index="0" disallow="tram rail_urban rail rail_electric rail_fast ship" speed="13.89" length="14.54" shape="548930.65,5914058.66 548928.58,5914044.27"/>
    </edge>
    <edge id=":191007751_5" function="internal">
        <lane id=":191007751_5_0" index="0" disallow="tram rail_urban rail rail_electric rail_fast ship" speed="8.01" length="14.17" shape="548930.65,5914058.66 548929.49,5914054.96 548927.42,5914052.51 548924.44,5914051.32 548920.56,5914051.38"/>
    </edge>
    <edge id=":191007751_6" function="internal">
        <lane id=":191007751_6_0" index="0" disallow="tram rail_urban rail rail_electric rail_fast ship" speed="6.52" length="9.03" shape="548921.07,5914054.54 548923.54,5914054.50 548925.43,5914055.26 548926.75,5914056.82 548927.49,5914059.18"/>
    </edge>
    <edge id=":191007751_7" function="internal">
        <lane id=":191007751_7_0" index="0" disallow="tram rail_urban rail rail_electric rail_fast ship" speed="13.89" length="14.65" shape="548921.07,5914054.54 548935.50,5914052.01"/>
    </edge>
    <edge id=":191007751_8" function="internal">
        <lane id=":191007751_8_0" index="0" disallow="tram rail_urban rail rail_electric rail_fast ship" speed="8.16" length="6.07" shape="548921.07,5914054.54 548924.77,5914053.38 548926.44,5914051.97"/>
    </edge>
    <edge id=":191007751_13" function="internal">
        <lane id=":191007751_13_0" index="0" disallow="tram rail_urban rail rail_electric rail_fast ship" speed="8.16" length="8.33" shape="548926.44,5914051.97 548927.26,5914051.29 548928.53,5914048.25 548928.58,5914044.27"/>
    </edge>
    <edge id=":191007751_9" function="internal">
        <lane id=":191007751_9_0" index="0" disallow="tram rail_urban rail rail_electric rail_fast ship" speed="6.69" length="9.37" shape="548925.41,5914044.67 548925.38,5914047.27 548924.56,5914049.26 548922.95,5914050.63 548920.56,5914051.38"/>
    </edge>
    <edge id=":191007751_10" function="internal">
        <lane id=":191007751_10_0" index="0" disallow="tram rail_urban rail rail_electric rail_fast ship" speed="13.89" length="14.66" shape="548925.41,5914044.67 548927.49,5914059.18"/>
    </edge>
    <edge id=":191007751_11" function="internal">
        <lane id=":191007751_11_0" index="0" disallow="tram rail_urban rail rail_electric rail_fast ship" speed="7.89" length="14.45" shape="548925.41,5914044.67 548926.46,5914048.52 548928.49,5914051.03 548931.50,5914052.19 548935.50,5914052.01"/>
    </edge>
    <edge id=":191008078_0" function="internal">
        <lane id=":191008078_0_0" index="0" disallow="tram rail_urban rail rail_electric rail_fast ship" speed="6.70" length="9.21" shape="549201.13,5914021.33 549198.81,5914022.14 549196.73,5914022.01 549194.90,5914020.95 549193.31,5914018.95"/>
    </edge>
    <edge id=":191008078_1" function="internal">
        <lane id=":191008078_1_0" index="0" disallow="tram rail_urban rail rail_electric rail_fast ship" speed="13.89" length="14.33" shape="549201.13,5914021.33 549188.58,5914028.24"/>
    </edge>
    <edge id=":191008078_2" function="internal">
        <lane id=":191008078_2_0" index="0" disallow="tram rail_urban rail rail_electric rail_fast ship" speed="13.89" length="14.18" shape="549190.18,5914031.00 549202.61,5914024.17"/>
    </edge>
    <edge id=":191008078_3" function="internal">
        <lane id=":191008078_3_0" index="0" disallow="tram rail_urban rail rail_electric rail_fast ship" speed="7.98" length="5.69" shape="549190.18,5914031.00 549193.25,5914028.59 549194.11,5914027.02"/>
    </edge>
    <edge id=":191008078_6" function="internal">
        <lane id=":191008078_6_0" index="0" disallow="tram rail_urban rail rail_electric rail_fast ship" speed="7.98" length="8.55" shape="549194.11,5914027.02 549194.79,5914025.77 549194.81,5914022.56 549193.31,5914018.95"/>
    </edge>
    <edge id=":191008078_4" function="internal">
        <lane id=":191008078_4_0" index="0" disallow="tram rail_urban rail rail_electric rail_fast ship" speed="6.48" length="9.03" shape="549190.56,5914020.59 549191.52,5914022.88 549191.50,5914024.92 549190.52,5914026.70 549188.58,5914028.24"/>
    </edge>
    <edge id=":191008078_5" function="internal">
        <lane id=":191008078_5_0" index="0" disallow="tram rail_urban rail rail_electric rail_fast ship" speed="8.16" length="14.15" shape="549190.56,5914020.59 549192.99,5914023.63 549195.81,5914025.24 549199.02,5914025.42 549202.61,5914024.17"/>
    </edge>
    <edge id=":191008084_0" function="internal">
        <lane id=":191008084_0_0" index="0" disallow="tram rail_urban rail rail_electric rail_fast ship" speed="13.89" length="14.22" shape="549263.16,5913839.99 549249.64,5913844.40"/>
    </edge>
    <edge id=":191008084_1" function="internal">
        <lane id=":191008084_1_0" index="0" disallow="tram rail_urban rail rail_electric rail_fast ship" speed="8.13" length="5.68" shape="549263.16,5913839.99 549259.77,5913841.75 549258.57,5913843.17"/>
    </edge>
    <edge id=":191008084_6" function="internal">
        <lane id=":191008084_6_0" index="0" disallow="tram rail_urban rail rail_electric rail_fast ship" speed="8.13" length="8.48" shape="549258.57,5913843.17 549257.70,5913844.20 549256.96,5913847.36 549257.54,5913851.21"/>
    </edge>
    <edge id=":191008084_2" function="internal">
        <lane id=":191008084_2_0" index="0" disallow="tram rail_urban rail rail_electric rail_fast ship" speed="6.66" length="9.17" shape="549260.61,5913850.30 549260.22,5913847.79 549260.70,5913845.74 549262.03,5913844.15 549264.21,5913843.02"/>
    </edge>
    <edge id=":191008084_3" function="internal">
        <lane id=":191008084_3_0" index="0" disallow="tram rail_urban rail rail_electric rail_fast ship" speed="7.99" length="14.23" shape="549260.61,5913850.30 549258.98,5913846.75 549256.61,5913844.58 549253.50,5913843.80 549249.64,5913844.40"/>
    </edge>
    <edge id=":191008084_4" function="internal">
        <lane id=":191008084_4_0" index="0" disallow="tram rail_urban rail rail_electric rail_fast ship" speed="6.49" length="9.03" shape="549250.57,5913847.46 549253.02,5913847.08 549255.00,5913847.58 549256.50,5913848.95 549257.54,5913851.21"/>
    </edge>
    <edge id=":191008084_5" function="internal">
        <lane id=":191008084_5_0" index="0" disallow="tram rail_urban rail rail_electric rail_fast ship" speed="13.89" length="14.34" shape="549250.57,5913847.46 549264.21,5913843.02"/>
    </edge>
    <edge id=":191008162_0" function="internal">
        <lane id=":191008162_0_0" index="0" disallow="tram rail_urban rail rail_electric rail_fast ship" speed="6.47" length="9.03" shape="549167.51,5913933.15 549165.06,5913933.53 549163.09,5913933.03 549161.60,5913931.65 549160.58,5913929.38"/>
    </edge>
    <edge id=":191008162_1" function="internal">
        <lane id=":191008162_1_0" index="0" disallow="tram rail_urban rail rail_electric rail_fast ship" speed="8.35" length="13.95" shape="549167.51,5913933.15 549164.25,5913934.71 549162.11,5913937.05 549161.11,5913940.16 549161.25,5913944.05"/>
    </edge>
    <edge id=":191008162_2" function="internal">
        <lane id=":191008162_2_0" index="0" disallow="tram rail_urban rail rail_electric rail_fast ship" speed="6.83" length="9.02" shape="549164.36,5913943.24 549164.27,5913940.74 549164.93,5913938.73 549166.32,5913937.22 549168.45,5913936.21"/>
    </edge>
    <edge id=":191008162_3" function="internal">
        <lane id=":191008162_3_0" index="0" disallow="tram rail_urban rail rail_electric rail_fast ship" speed="13.89" length="14.37" shape="549164.36,5913943.24 549163.62,5913939.67 549162.68,5913936.27 549161.64,5913932.88 549160.58,5913929.38"/>
    </edge>
    <edge id=":191008162_4" function="internal">
        <lane id=":191008162_4_0" index="0" disallow="tram rail_urban rail rail_electric rail_fast ship" speed="13.89" length="14.30" shape="549157.51,5913930.26 549158.56,5913933.75 549159.59,5913937.11 549160.51,5913940.49 549161.25,5913944.05"/>
    </edge>
    <edge id=":191008162_5" function="internal">
        <lane id=":191008162_5_0" index="0" disallow="tram rail_urban rail rail_electric rail_fast ship" speed="7.97" length="6.12" shape="549157.51,5913930.26 549159.11,5913933.84 549160.72,5913935.33"/>
    </edge>
    <edge id=":191008162_6" function="internal">
        <lane id=":191008162_6_0" index="0" disallow="tram rail_urban rail rail_electric rail_fast ship" speed="7.97" length="8.14" shape="549160.72,5913935.33 549161.46,5913936.02 549164.58,5913936.81 549168.45,5913936.21"/>
    </edge>
    <edge id=":191008163_0" function="internal">
        <lane id=":191008163_0_0" index="0" disallow="tram rail_urban rail rail_electric rail_fast ship" speed="7.30" length="2.80" shape="549148.67,5913877.68 549148.05,5913878.23 549147.67,5913878.66 549147.42,5913879.18 549147.16,5913879.96"/>
    </edge>
    <edge id=":191008163_1" function="internal">
        <lane id=":191008163_1_0" index="0" disallow="tram rail_urban rail rail_electric rail_fast ship" speed="13.89" length="0.93" shape="549150.22,5913880.90 549150.31,5913880.63 549150.39,5913880.46 549150.52,5913880.32 549150.73,5913880.14"/>
    </edge>
    <edge id=":191008222_0" function="internal">
        <lane id=":191008222_0_0" index="0" disallow="tram rail_urban rail rail_electric rail_fast ship" speed="13.89" length="13.27" shape="549313.46,5913831.50 549312.25,5913828.23 549311.28,5913825.23 549310.46,5913822.18 549309.72,5913818.78"/>
    </edge>
    <edge id=":191008222_1" function="internal">
        <lane id=":191008222_1_0" index="0" disallow="tram rail_urban rail rail_electric rail_fast ship" speed="8.01" length="5.55" shape="549313.46,5913831.50 549311.61,5913828.21 549310.21,5913827.11"/>
    </edge>
    <edge id=":191008222_6" function="internal">
        <lane id=":191008222_6_0" index="0" disallow="tram rail_urban rail rail_electric rail_fast ship" speed="8.01" length="8.26" shape="549310.21,5913827.11 549309.15,5913826.26 549306.07,5913825.65 549302.37,5913826.38"/>
    </edge>
    <edge id=":191008222_2" function="internal">
        <lane id=":191008222_2_0" index="0" disallow="tram rail_urban rail rail_electric rail_fast ship" speed="6.51" length="8.79" shape="549303.42,5913829.40 549305.77,5913828.94 549307.73,5913829.33 549309.30,5913830.57 549310.48,5913832.66"/>
    </edge>
    <edge id=":191008222_3" function="internal">
        <lane id=":191008222_3_0" index="0" disallow="tram rail_urban rail rail_electric rail_fast ship" speed="8.29" length="13.69" shape="549303.42,5913829.40 549306.77,5913827.71 549308.93,5913825.38 549309.92,5913822.40 549309.72,5913818.78"/>
    </edge>
    <edge id=":191008222_4" function="internal">
        <lane id=":191008222_4_0" index="0" disallow="tram rail_urban rail rail_electric rail_fast ship" speed="6.84" length="9.03" shape="549306.58,5913819.41 549306.70,5913821.77 549306.04,5913823.72 549304.60,5913825.26 549302.37,5913826.38"/>
    </edge>
    <edge id=":191008222_5" function="internal">
        <lane id=":191008222_5_0" index="0" disallow="tram rail_urban rail rail_electric rail_fast ship" speed="13.89" length="13.83" shape="549306.58,5913819.41 549307.35,5913822.89 549308.22,5913826.12 549309.24,5913829.31 549310.48,5913832.66"/>
    </edge>
    <edge id=":191008337_0" function="internal">
        <lane id=":191008337_0_0" index="0" disallow="tram rail_urban rail rail_electric rail_fast ship" speed="13.41" length="13.89" shape="549316.10,5913676.22 549302.22,5913675.93"/>
    </edge>
    <edge id=":191008337_1" function="internal">
        <lane id=":191008337_1_0" index="0" disallow="tram rail_urban rail rail_electric rail_fast ship" speed="8.27" length="5.33" shape="549316.10,5913676.22 549312.42,5913676.87 549311.07,5913677.71"/>
    </edge>
    <edge id=":191008337_6" function="internal">
        <lane id=":191008337_6_0" index="0" disallow="tram rail_urban rail rail_electric rail_fast ship" speed="8.27" length="8.72" shape="549311.07,5913677.71 549309.71,5913678.56 549307.96,5913681.30 549307.17,5913685.09"/>
    </edge>
    <edge id=":191008337_2" function="internal">
        <lane id=":191008337_2_0" index="0" disallow="tram rail_urban rail rail_electric rail_fast ship" speed="6.82" length="9.26" shape="549310.37,5913685.31 549310.88,5913682.79 549312.02,5913680.97 549313.80,5913679.85 549316.20,5913679.42"/>
    </edge>
    <edge id=":191008337_3" function="internal">
        <lane id=":191008337_3_0" index="0" disallow="tram rail_urban rail rail_electric rail_fast ship" speed="7.92" length="14.29" shape="549310.37,5913685.31 549310.10,5913681.30 549308.65,5913678.41 549306.02,5913676.62 549302.22,5913675.93"/>
    </edge>
    <edge id=":191008337_4" function="internal">
        <lane id=":191008337_4_0" index="0" disallow="tram rail_urban rail rail_electric rail_fast ship" speed="6.44" length="9.09" shape="549301.99,5913679.13 549304.41,5913679.56 549306.08,5913680.70 549307.00,5913682.54 549307.17,5913685.09"/>
    </edge>
    <edge id=":191008337_5" function="internal">
        <lane id=":191008337_5_0" index="0" disallow="tram rail_urban rail rail_electric rail_fast ship" speed="13.41" length="14.22" shape="549301.99,5913679.13 549316.20,5913679.42"/>
    </edge>
    <edge id=":191008359_0" function="internal">
        <lane id=":191008359_0_0" index="0" disallow="tram rail_urban rail rail_electric rail_fast ship" speed="13.89" length="14.53" shape="549302.87,5913746.78 549302.05,5913761.29"/>
    </edge>
    <edge id=":191008359_1" function="internal">
        <lane id=":191008359_1_0" index="0" disallow="tram rail_urban rail rail_electric rail_fast ship" speed="8.12" length="5.99" shape="549302.87,5913746.78 549303.16,5913750.62 549304.15,5913752.53"/>
    </edge>
    <edge id=":191008359_6" function="internal">
        <lane id=":191008359_6_0" index="0" disallow="tram rail_urban rail rail_electric rail_fast ship" speed="8.12" length="8.31" shape="549304.15,5913752.53 549304.64,5913753.48 549307.31,5913755.38 549311.16,5913756.31"/>
    </edge>
    <edge id=":191008359_2" function="internal">
        <lane id=":191008359_2_0" index="0" disallow="tram rail_urban rail rail_electric rail_fast ship" speed="6.65" length="9.26" shape="549311.48,5913753.13 549308.96,5913752.53 549307.22,5913751.31 549306.25,5913749.47 549306.06,5913747.01"/>
    </edge>
    <edge id=":191008359_3" function="internal">
        <lane id=":191008359_3_0" index="0" disallow="tram rail_urban rail rail_electric rail_fast ship" speed="7.90" length="14.41" shape="549311.48,5913753.13 549307.50,5913753.30 549304.61,5913754.71 549302.79,5913757.38 549302.05,5913761.29"/>
    </edge>
    <edge id=":191008359_4" function="internal">
        <lane id=":191008359_4_0" index="0" disallow="tram rail_urban rail rail_electric rail_fast ship" speed="6.39" length="9.04" shape="549305.25,5913761.43 549305.71,5913758.98 549306.85,5913757.31 549308.67,5913756.42 549311.16,5913756.31"/>
    </edge>
    <edge id=":191008359_5" function="internal">
        <lane id=":191008359_5_0" index="0" disallow="tram rail_urban rail rail_electric rail_fast ship" speed="13.89" length="14.45" shape="549305.25,5913761.43 549306.06,5913747.01"/>
    </edge>
    <edge id=":3161303937_0" function="internal">
        <lane id=":3161303937_0_0" index="0" disallow="tram rail_urban rail rail_electric rail_fast ship" speed="9.81" length="1.78" shape="548878.36,5913809.64 548878.04,5913810.05 548877.84,5913810.36 548877.69,5913810.69 548877.52,5913811.19"/>
    </edge>
    <edge id=":3161303937_1" function="internal">
        <lane id=":3161303937_1_0" index="0" disallow="tram rail_urban rail rail_electric rail_fast ship" speed="13.89" length="0.59" shape="548880.57,5913812.17 548880.63,5913812.00 548880.67,5913811.89 548880.74,5913811.79 548880.85,5913811.65"/>
    </edge>
    <edge id=":360991846_0" function="internal">
        <lane id=":360991846_0_0" index="0" disallow="tram rail_urban rail rail_electric rail_fast ship" speed="13.41" length="0.27" shape="548993.75,5913661.78 548993.48,5913661.85"/>
    </edge>
    <edge id=":360991846_1" function="internal">
        <lane id=":360991846_1_0" index="0" disallow="tram rail_urban rail rail_electric rail_fast ship" speed="13.41" length="0.14" shape="548994.34,5913664.93 548994.47,5913664.90"/>
    </edge>
    <edge id=":4087673048_0" function="internal">
        <lane id=":4087673048_0_0" index="0" disallow="tram rail_urban rail rail_electric rail_fast ship" speed="22.22" length="0.31" shape="549404.85,5913922.73 549404.71,5913923.01"/>
    </edge>
    <edge id=":4087673048_1" function="internal">
        <lane id=":4087673048_1_0" index="0" disallow="tram rail_urban rail rail_electric rail_fast ship" speed="22.22" length="0.29" shape="549407.60,5913924.40 549407.72,5913924.14"/>
    </edge>
    <edge id=":4087673066_0" function="internal">
        <lane id=":4087673066_0_0" index="0" disallow="tram rail_urban rail rail_electric rail_fast ship" speed="22.22" length="1.22" shape="549411.66,5913908.25 549412.12,5913907.13"/>
    </edge>
    <edge id=":4087673066_1" function="internal">
        <lane id=":4087673066_1_0" index="0" disallow="tram rail_urban rail rail_electric rail_fast ship" speed="22.22" length="1.26" shape="549415.08,5913908.36 549414.60,5913909.52"/>
    </edge>
    <edge id=":4869671642_0" function="internal">
        <lane id=":4869671642_0_0" index="0" disallow="tram rail_urban rail rail_electric rail_fast ship" speed="13.89" length="0.36" shape="549149.93,5914050.64 549149.84,5914050.70 549149.77,5914050.73 549149.70,5914050.76 549149.60,5914050.79"/>
    </edge>
    <edge id=":4869671642_1" function="internal">
        <lane id=":4869671642_1_0" index="0" disallow="tram rail_urban rail rail_electric rail_fast ship" speed="13.89" length="1.09" shape="549150.54,5914053.85 549150.85,5914053.75 549151.06,5914053.67 549151.26,5914053.57 549151.54,5914053.41"/>